/*--------------------------------*- C++ -*----------------------------------*\
| =========                 |                                                 |
| \\      /  F ield         | OpenFOAM Extend Project: Open source CFD        |
|  \\    /   O peration     | Version:  1.6-ext                               |
|   \\  /    A nd           | Web:      www.extend-project.de                 |
|    \\/     M anipulation  |                                                 |
\*---------------------------------------------------------------------------*/
FoamFile
{
    version      2.0;
    format       ascii;
    class        dictionary;
    object       fvSolution;
}
// * * * * * * * * * * * * * * * * * * * * * * * * * * * * * * * * * * * * * //

solvers
{
	pcorr
	{
		solver		PCG;
		preconditioner	DIC;
		tolerance	0.01;
		relTol		0;
	}

	p
	{
		solver		PCG;
		preconditioner	DIC;
		tolerance	1e-06;
		relTol		0.05;
	}

	pFinal
	{
		solver		PCG;
		preconditioner	DIC;
		tolerance	1e-06;
		relTol		0;
	}

	U
	{
		solver		PBiCG;
		preconditioner	DILU;
		tolerance	1e-05;
		relTol		0;
	}

	UFinal
	{
		$U;
		tolerance	1e-05;
		relTol		0;
	}
}

PIMPLE
{
	nOuterCorrectors		2;
	nCorrectors			1;
	nNonOrthogonalCorrectors	0;
}
// ************************************************************************* //
