/*--------------------------------*- C++ -*----------------------------------*\
| =========                 |                                                 |
| \\      /  F ield         | OpenFOAM Extend Project: Open source CFD        |
|  \\    /   O peration     | Version:  1.6-ext                               |
|   \\  /    A nd           | Web:      www.extend-project.de                 |
|    \\/     M anipulation  |                                                 |
\*---------------------------------------------------------------------------*/
FoamFile
{
	version		2.0;
	format		ascii;
	class		volScalarField;
	location	"0";
	object		magVorticity;
}
// * * * * * * * * * * * * * * * * * * * * * * * * * * * * * * * * * * * * * //

dimensions	[0 0 -1 0 0 0 0];

internalField	uniform 0;

boundaryField
{
	outlet
	{
		type		calculated;
		value		uniform 0;
	}
	lowerWall
	{
		type		calculated;
		value		uniform 0;
	}
	inlet
	{
		type		calculated;
		value		uniform 0;
	}
	upperWall
	{
		type		calculated;
		value		uniform 0;
	}
	obstacle
	{
		type		calculated;
		value		uniform 0;
	}
	defaultFaces
	{
		type		empty;
	}
}
// ************************************************************************* //
